250
lattice coor
Al  0.86416096016032  7.11727406922225  0.62464765001912
Al  0.8641609601603193  7.11727406922225  0.62464765001912
Al  -3.9740452683740592  -1.289864793599996  5.93061359501156
Al  6.479565944065438  0.2609121037575  3.32514638510496
Al  6.47956594406544  0.2609121037575  3.32514638510496
Al  -0.8474748459345598  -4.459690728757497  -5.7031193548950405
Al  -0.9106485916259395  -7.107692456399999  1.41648072501156
Al  -3.3433922134971787  5.543454274770751  3.41520333586146
Al  5.7321687059345585  4.459690728757501  -1.1889864848950396
Al  5.732168705934559  4.459690728757501  -1.1889864848950396
Al  3.3529955216259397  -2.9089138313999996  5.93061359501156
Al  3.352995521625939  -2.9089138313999996  5.93061359501156
Al  -3.3065078901603187  -5.4790618057777465  -3.889485219980884
Al  1.5781859698396798  -5.4790618057777465  5.13878052001912
Al  1.57818596983968  -5.4790618057777465  5.13878052001912
Al  -6.416392198374059  -2.9089138313999996  -3.0976521449884444
Al  -5.7321687059345585  3.9378665212425004  3.32514638510496
Al  -0.9106485916259395  1.2898647935999998  -7.611785014988442
Al  0.91064859162594  7.107692456400001  -3.0976521449884444
Al  0.9106485916259395  7.107692456400001  -3.0976521449884444
Al  -5.748854820160318  1.2802831807777502  5.13878052001912
Al  6.425995506502819  -2.854102975229246  3.41520333586146
Al  6.42599550650282  -2.854102975229246  3.41520333586146
Al  -0.9010452834971794  7.05288160022925  3.41520333586146
Al  -5.7321687059345585  -4.459690728757497  3.32514638510496
Al  -1.5948720840654396  -0.26091210375749796  7.83927925510496
Al  4.037219014065439  3.9378665212425004  -5.7031193548950405
Al  4.03721901406544  3.9378665212425004  -5.7031193548950405
Al  1.54130164650282  5.543454274770751  -5.613062404138542
Al  6.46287982983968  2.91849544422225  -3.889485219980884
Al  6.462879829839679  2.91849544422225  -3.889485219980884
Al  0.9010452834971798  1.34467564977075  7.9293362058614605
Al  0.9010452834971794  1.34467564977075  7.9293362058614605
Al  -0.8641609601603193  -7.117274069222248  -3.889485219980884
Al  -5.78573914349718  -1.3446756497707497  -5.613062404138542
Al  -3.9836485765028193  -7.052881600229249  -1.0989295341385414
Al  -4.020532899839679  7.11727406922225  0.62464765001912
Al  -3.3065078901603187  -5.4790618057777465  5.13878052001912
Al  -1.5316983383740599  5.4886434186  5.93061359501156
Al  8.174515635934558  -0.26091210375749796  -1.1889864848950396
Al  8.17451563593456  -0.26091210375749796  -1.1889864848950396
Al  3.9740452683740597  -7.107692456399999  1.41648072501156
Al  3.9740452683740592  -7.107692456399999  1.41648072501156
Al  4.03721901406544  -4.459690728757497  -5.7031193548950405
Al  4.037219014065439  -4.459690728757497  -5.7031193548950405
Al  1.5316983383740599  2.9089138314  -7.611785014988442
Al  -1.5948720840654396  8.1366451462425  -1.1889864848950396
Al  5.795342451625938  -1.289864793599996  5.93061359501156
Al  5.79534245162594  -1.289864793599996  5.93061359501156
Al  -6.462879829839679  5.47906180577775  0.62464765001912
Al  3.2898217759345596  -0.26091210375749796  7.83927925510496
Al  3.289821775934559  -0.26091210375749796  7.83927925510496
Al  0.86416096016032  -1.2802831807777508  -8.403618089980881
Al  0.8641609601603193  -1.2802831807777508  -8.403618089980881
Al  -6.425995506502819  -5.543454274770749  -1.0989295341385414
Al  6.4163921983740595  -5.488643418599999  1.41648072501156
Al  6.416392198374059  -5.488643418599999  1.41648072501156
Al  -1.54130164650282  2.85410297522925  7.9293362058614605
Al  -3.3433922134971787  5.543454274770751  -5.613062404138542
Al  6.47956594406544  0.2609121037575  -5.7031193548950405
Al  6.479565944065438  0.2609121037575  -5.7031193548950405
Al  3.9740452683740597  1.2898647935999998  -7.611785014988442
Al  3.9740452683740592  1.2898647935999998  -7.611785014988442
Al  -3.9740452683740592  7.107692456400001  -3.0976521449884444
Al  8.191201750160317  -2.9184954442222484  0.62464765001912
Al  8.19120175016032  -2.9184954442222484  0.62464765001912
Al  3.3529955216259397  5.4886434186  5.93061359501156
Al  3.352995521625939  5.4886434186  5.93061359501156
Al  6.46287982983968  2.91849544422225  5.13878052001912
Al  6.462879829839679  2.91849544422225  5.13878052001912
Al  8.228086073497177  2.85410297522925  -1.0989295341385414
Al  8.22808607349718  2.85410297522925  -1.0989295341385414
Al  3.9836485765028193  7.05288160022925  3.41520333586146
Al  -3.352995521625939  2.9089138314  -7.611785014988442
Al  0.84747484593456  -3.9378665212424977  7.83927925510496
Al  0.8474748459345598  -3.9378665212424977  7.83927925510496
Al  -0.8641609601603193  -7.117274069222248  5.13878052001912
Al  -8.17451563593456  0.2609121037575  3.32514638510496
Al  -8.23768938162594  2.9089138314  1.41648072501156
Al  3.2898217759345596  8.1366451462425  -1.1889864848950396
Al  3.289821775934559  8.1366451462425  -1.1889864848950396
Al  -1.5948720840654396  -8.6584693537575  -1.1889864848950396
Al  1.59487208406544  -8.136645146242497  3.32514638510496
Al  1.5948720840654396  -8.136645146242497  3.32514638510496
Al  -3.9836485765028193  1.34467564977075  7.9293362058614605
Al  -5.7321687059345585  3.9378665212425004  -5.7031193548950405
Al  -6.416392198374059  5.4886434186  -3.0976521449884444
Al  6.42599550650282  -2.854102975229246  -5.613062404138542
Al  6.425995506502819  -2.854102975229246  -5.613062404138542
Al  -8.90522675983968  -1.2802831807777508  0.62464765001912
Al  -1.57818596983968  -2.9184954442222484  -8.403618089980881
Al  -8.86834243650282  1.34467564977075  -1.0989295341385414
Al  4.02053289983968  -7.117274069222248  -3.889485219980884
Al  4.020532899839679  -7.117274069222248  -3.889485219980884
Al  0.84747484593456  4.459690728757501  7.83927925510496
Al  0.8474748459345598  4.459690728757501  7.83927925510496
Al  -0.9010452834971794  7.05288160022925  -5.613062404138542
Al  8.858739128374058  1.2898647935999998  1.41648072501156
Al  8.85873912837406  1.2898647935999998  1.41648072501156
Al  3.34339221349718  2.85410297522925  7.9293362058614605
O  2.5486280990058816  -6.921443034152247  -0.028357782689340638
O  -4.795069497056719  5.615723652464251  0.08647272925772
O  -0.76139677073364  -7.046188747100999  -2.0954153369252992
O  -1.6809501592663594  -2.8474101221009995  -6.609548206925304
O  -0.7655389911269204  6.9805702347495  -2.32790220799604
O  -4.778412690994118  -5.674892840847747  -0.028357782689340638
O  2.53197129294328  6.98061222253575  0.08647272925772
O  2.531971292943279  6.98061222253575  0.08647272925772
O  1.67680793887308  -2.7817916097494972  6.70036353200396
O  1.676807938873079  -2.7817916097494972  6.70036353200396
O  -6.5615017988730795  2.7817916097495  2.18623066200396
O  6.565644019266358  2.847410122101  -2.0954153369252992
O  6.56564401926636  2.847410122101  -2.0954153369252992
O  5.650022809290938  4.1888275196587506  2.47734709079026
O  5.65002280929094  4.1888275196587506  2.47734709079026
O  5.650022809290938  -4.208729730341247  2.47734709079026
O  5.65002280929094  -4.208729730341247  2.47734709079026
O  0.76139677073364  7.0461887471010005  2.4187175330747
O  6.561501798873078  -2.7817916097494972  -2.32790220799604
O  6.5615017988730795  -2.7817916097494972  -2.32790220799604
O  4.974318222943278  5.615723652464251  0.08647272925772
O  4.974318222943279  5.615723652464251  0.08647272925772
O  7.416665152943278  -1.4169450274642514  0.08647272925772
O  7.416665152943279  -1.4169450274642514  0.08647272925772
O  -6.56564401926636  -2.8474101221009995  2.4187175330747
O  4.990975029005877  -5.674892840847747  -0.028357782689340638
O  4.990975029005879  -5.674892840847747  -0.028357782689340638
O  -1.676807938873079  2.7817916097495  -6.842035077996041
O  7.43332195900588  1.47611421584775  -0.028357782689340638
O  1.6809501592663594  2.847410122101  6.9328504030747
O  1.6809501592663598  2.847410122101  6.9328504030747
O  -3.207675879290939  -0.00995110534125132  6.99147996079026
O  0.76532894929094  4.1888275196587506  -6.550918649209741
O  0.7653289492909394  4.1888275196587506  -6.550918649209741
O  0.76532894929094  -4.208729730341247  -6.550918649209741
O  0.7653289492909394  -4.208729730341247  -6.550918649209741
O  3.2037437007336393  -2.8474101221009995  -6.609548206925304
O  -4.123297089266359  -1.3513685028989997  -6.609548206925304
O  -3.2078859211269197  -2.7817916097494972  6.70036353200396
O  4.119154868873079  -1.4169870152504984  6.70036353200396
O  4.119154868873078  -1.4169870152504984  6.70036353200396
O  3.2078859211269197  2.7817916097495  -6.842035077996041
O  -4.119154868873078  1.4169870152505  -6.842035077996041
O  -3.2037437007336393  2.847410122101  6.9328504030747
O  4.123297089266359  1.3513685028990001  6.9328504030747
O  4.12329708926636  1.3513685028990001  6.9328504030747
O  -0.7653289492909394  -4.188827519658748  6.99147996079026
O  -0.7653289492909394  4.20872973034125  6.99147996079026
O  -0.10666217512696008  -8.29943179353375  0.034668540441600004
O  7.220378614873038  4.10065316853375  0.034668540441600004
O  7.22037861487304  4.10065316853375  0.034668540441600004
O  -8.09236973929094  -0.00995110534125132  -2.036785779209744
O  -4.119154868873078  -6.9805702347495  2.18623066200396
O  7.220378614873038  -4.2969040814662485  0.034668540441600004
O  7.22037861487304  -4.2969040814662485  0.034668540441600004
O  4.12329708926636  -7.046188747100999  -2.0954153369252992
O  4.123297089266359  -7.046188747100999  -2.0954153369252992
O  4.119154868873078  6.9805702347495  -2.32790220799604
O  4.119154868873079  6.9805702347495  -2.32790220799604
O  8.092369739290938  0.00995110534125  2.47734709079026
O  8.09236973929094  0.00995110534125  2.47734709079026
O  -7.43370296512696  4.10065316853375  0.034668540441600004
O  -0.10666217512696008  8.49568270646625  0.034668540441600004
O  -4.123297089266359  7.0461887471010005  2.4187175330747
O  2.3360657609941198  6.92144303415225  4.48577508731066
O  2.3360657609941207  6.92144303415225  4.48577508731066
O  -7.43370296512696  -4.2969040814662485  0.034668540441600004
O  2.35272256705672  -6.980612222535747  -4.427660140742283
O  7.237416427056719  1.4169450274642499  -4.427660140742283
O  7.2374164270567185  1.4169450274642499  -4.427660140742283
O  2.3360657609941198  6.92144303415225  -4.542490652689342
O  2.3360657609941207  6.92144303415225  -4.542490652689342
O  4.795069497056719  -5.615723652464247  -4.427660140742283
O  7.220759620994119  -1.4761142158477512  4.48577508731066
O  -2.548628099005878  6.92144303415225  4.48577508731066
O  -2.531971292943279  -6.980612222535747  -4.427660140742283
O  7.220759620994119  -1.4761142158477512  -4.542490652689342
O  -2.548628099005878  6.92144303415225  -4.542490652689342
O  4.778412690994119  5.67489284084775  4.48577508731066
O  4.77841269099412  5.67489284084775  4.48577508731066
O  2.35272256705672  -6.980612222535747  4.60060559925772
O  7.237416427056719  1.4169450274642499  4.60060559925772
O  7.2374164270567185  1.4169450274642499  4.60060559925772
O  4.778412690994119  5.67489284084775  -4.542490652689342
O  4.77841269099412  5.67489284084775  -4.542490652689342
O  4.795069497056719  -5.615723652464247  4.60060559925772
O  -4.97431822294328  -5.615723652464247  -4.427660140742283
O  -2.531971292943279  -6.980612222535747  4.60060559925772
O  -7.416665152943279  1.4169450274642499  -4.427660140742283
O  -4.990975029005881  5.67489284084775  4.48577508731066
O  1.6770179807090597  8.38760614465875  -2.036785779209744
O  1.67701798070906  8.38760614465875  -2.036785779209744
O  -1.6809501592663594  5.550147127899  -6.609548206925304
O  5.64609063073364  -1.3513685028989997  -6.609548206925304
O  5.646090630733639  -1.3513685028989997  -6.609548206925304
O  -4.119364910709059  4.1888275196587506  -6.550918649209741
O  -4.97431822294328  -5.615723652464247  4.60060559925772
O  -7.43332195900588  -1.4761142158477512  4.48577508731066
O  -4.119364910709059  -4.208729730341247  -6.550918649209741
O  1.6770179807090597  -8.40750835534125  -2.036785779209744
O  1.67701798070906  -8.40750835534125  -2.036785779209744
O  -4.990975029005881  5.67489284084775  -4.542490652689342
O  -8.08843756073364  2.847410122101  -2.0954153369252992
O  8.092579781126918  2.7817916097495  2.18623066200396
O  -7.43332195900588  -1.4761142158477512  -4.542490652689342
O  -7.416665152943279  1.4169450274642499  4.60060559925772
O  6.565644019266358  -5.550147127898999  -2.0954153369252992
O  6.56564401926636  -5.550147127898999  -2.0954153369252992
O  -8.092579781126918  -2.7817916097494972  -2.32790220799604
O  -5.650232851126919  -1.4169870152504984  6.70036353200396
O  1.67680793887308  5.6157656402505  6.70036353200396
O  1.676807938873079  5.6157656402505  6.70036353200396
O  -1.67701798070906  -8.387606144658747  2.47734709079026
O  -6.5615017988730795  -5.615765640250498  2.18623066200396
O  8.088437560733638  -2.8474101221009995  2.4187175330747
O  -1.67701798070906  8.40750835534125  2.47734709079026
O  -6.56564401926636  5.550147127899  2.4187175330747
O  6.5615017988730795  5.6157656402505  -2.32790220799604
O  6.561501798873078  5.6157656402505  -2.32790220799604
O  5.650232851126919  1.4169870152505  -6.842035077996041
O  -0.10666217512696008  0.09812545646625  -8.993597199558401
O  -1.676807938873079  -5.615765640250498  -6.842035077996041
O  1.6809501592663598  -5.550147127898999  6.9328504030747
O  1.6809501592663594  -5.550147127898999  6.9328504030747
O  -5.646090630733639  1.3513685028990001  6.9328504030747
O  -0.10666217512696008  0.09812545646625  9.0629342804416
O  4.119364910709059  -4.188827519658748  6.99147996079026
O  4.119364910709059  4.20872973034125  6.99147996079026
O  3.2037437007336393  5.550147127899  -6.609548206925304
O  -3.207675879290939  8.38760614465875  -2.036785779209744
O  -3.207675879290939  -8.40750835534125  -2.036785779209744
O  5.650232851126919  -6.9805702347495  2.18623066200396
O  -5.646090630733639  -7.046188747100999  -2.0954153369252992
O  -6.561711840709059  0.00995110534125  -6.550918649209741
O  -5.650232851126919  6.9805702347495  -2.32790220799604
O  -3.2078859211269197  5.6157656402505  6.70036353200396
O  3.207675879290939  -8.387606144658747  2.47734709079026
O  3.2076758792909397  -8.387606144658747  2.47734709079026
O  3.2076758792909397  8.40750835534125  2.47734709079026
O  3.207675879290939  8.40750835534125  2.47734709079026
O  9.007990949266357  1.3513685028990001  -2.0954153369252992
O  9.00799094926636  1.3513685028990001  -2.0954153369252992
O  5.64609063073364  7.0461887471010005  2.4187175330747
O  5.646090630733639  7.0461887471010005  2.4187175330747
O  -2.35272256705672  -1.4169450274642514  -8.94179301074228
O  0.08962436294328  -2.7818335975357478  -8.94179301074228
O  0.08962436294327958  -2.7818335975357478  -8.94179301074228
O  -9.003848728873079  1.4169870152505  2.18623066200396
O  2.53197129294328  -1.4169450274642514  -8.94179301074228
O  2.531971292943279  -1.4169450274642514  -8.94179301074228
